IEEE13/IEEE_13_NRall.glm
// $Id: IEEE13-Feb27.glm
//	Copyright (C) 2011 Battelle Memorial Institute

#set iteration_limit=100000;

clock {
	timezone EST+5EDT;
	starttime '2000-01-01 0:01:00';
	stoptime '2000-12-30 23:01:00';
}

module powerflow {
	solver_method NR;
	line_capacitance true;
	}
module assert;
module tape;

// Phase Conductor for 601: 556,500 26/7 ACSR
object overhead_line_conductor {
	name olc6010;
	geometric_mean_radius 0.031300;
	diameter 0.927 in;
	resistance 0.185900;
}

// Phase Conductor for 602: 4/0 6/1 ACSR
object overhead_line_conductor {
	name olc6020;
	geometric_mean_radius 0.00814;
	diameter 0.56 in;
	resistance 0.592000;
}

// Phase Conductor for 603, 604, 605: 1/0 ACSR
object overhead_line_conductor {
	name olc6030;
	geometric_mean_radius 0.004460;
	diameter 0.4 in;
	resistance 1.120000;
}


// Phase Conductor for 606: 250,000 AA,CN
object underground_line_conductor { 
	 name ulc6060;
	 outer_diameter 1.290000;
	 conductor_gmr 0.017100;
	 conductor_diameter 0.567000;
	 conductor_resistance 0.410000;
	 neutral_gmr 0.0020800; 
	 neutral_resistance 14.87200;  
	 neutral_diameter 0.0640837;
	 neutral_strands 13.000000;
	 insulation_relative_permitivitty 2.3;
	 shield_gmr 0.000000;
	 shield_resistance 0.000000;
}

// Phase Conductor for 607: 1/0 AA,TS N: 1/0 Cu
object underground_line_conductor { 
	 name ulc6070;
	 outer_diameter 1.060000;
	 conductor_gmr 0.011100;
	 conductor_diameter 0.368000;
	 conductor_resistance 0.970000;
	 neutral_gmr 0.011100;
	 neutral_resistance 0.970000; // Unsure whether this is correct
	 neutral_diameter 0.0640837;
	 neutral_strands 6.000000;
	 insulation_relative_permitivitty 2.3;
	 shield_gmr 0.000000;
	 shield_resistance 0.000000;
}

// Overhead line configurations
object line_spacing {
	name ls500601;
	distance_AB 2.5;
	distance_AC 4.5;
	distance_BC 7.0;
	distance_BN 5.656854;
	distance_AN 4.272002;
	distance_CN 5.0;
	distance_AE 28.0;
	distance_BE 28.0;
	distance_CE 28.0;
	distance_NE 24.0;
}

// Overhead line configurations
object line_spacing {
	name ls500602;
	distance_AC 2.5;
	distance_AB 4.5;
	distance_BC 7.0;
	distance_CN 5.656854;
	distance_AN 4.272002;
	distance_BN 5.0;
	distance_AE 28.0;
	distance_BE 28.0;
	distance_CE 28.0;
	distance_NE 24.0;
}

object line_spacing {
	name ls505603;
	distance_BC 7.0;
	distance_CN 5.656854;
	distance_BN 5.0;
	distance_BE 28.0;
	distance_CE 28.0;
	distance_NE 24.0;
}

object line_spacing {
	name ls505604;
	distance_AC 7.0;
	distance_AN 5.656854;
	distance_CN 5.0;
	distance_AE 28.0;
	distance_CE 28.0;
	distance_NE 24.0;
}

object line_spacing {
	name ls510;
	distance_CN 5.0;
	distance_CE 28.0;
	distance_NE 24.0;
}

object line_configuration {
	name lc601;
	conductor_A olc6010;
	conductor_B olc6010;
	conductor_C olc6010;
	conductor_N olc6020;
	spacing ls500601;
}

object line_configuration {
	name lc602;
	conductor_A olc6020;
	conductor_B olc6020;
	conductor_C olc6020;
	conductor_N olc6020;
	spacing ls500602;
}

object line_configuration {
	name lc603;
	conductor_B olc6030;
	conductor_C olc6030;
	conductor_N olc6030;
	spacing ls505603;
}

object line_configuration {
	name lc604;
	conductor_A olc6030;
	conductor_C olc6030;
	conductor_N olc6030;
	spacing ls505604;
}

object line_configuration {
	name lc605;
	conductor_C olc6030;
	conductor_N olc6030;
	spacing ls510;
}

//Underground line configuration
object line_spacing {
	 name ls515;
	 distance_AB 0.500000;
	 distance_BC 0.500000;
	 distance_AC 1.000000;
}

object line_spacing {
	 name ls520;
	 distance_AN 0.083333;
}

object line_configuration {
	 name lc606;
	 conductor_A ulc6060;
	 conductor_B ulc6060;
	 conductor_C ulc6060;
	 spacing ls515;
}

object line_configuration {
	 name lc607;
	 conductor_A ulc6070;
	 conductor_N ulc6070;
	 spacing ls520;
}

// Define line objects
object overhead_line {
     phases "BCN";
     name line_632-645;
     from n632;
     to l645;
     length 500;
     configuration lc603;
}

object overhead_line {
     phases "BCN";
     name line_645-646;
    from l645;
     to l646;
     length 300;
     configuration lc603;
}

object overhead_line { //630632 {
     phases "ABCN";
     name line_630-632;
     from n630;
     to n632;
     length 2000;
     configuration lc601;
}

//Split line for distributed load
object overhead_line { //6326321 {
     phases "ABCN";
     name line_632-6321;
     from n632;
     to l6321;
     length 500;
     configuration lc601;
}

object overhead_line { //6321671 {
     phases "ABCN";
     name line_6321-671;
    from l6321;
     to l671;
     length 1500;
     configuration lc601;
}
//End split line

object overhead_line { //671680 {
     phases "ABCN";
     name line_671-680;
    from l671;
     to n680;
     length 1000;
     configuration lc601;
}

object overhead_line { //671684 {
     phases "ACN";
     name line_671-684;
    from l671;
     to n684;
     length 300;
     configuration lc604;
}

 object overhead_line { //684611 {
      phases "CN";
      name line_684-611;
      from n684;
      to l611;
      length 300;
      configuration lc605;
}

object underground_line { //684652 {
      phases "AN";
      name line_684-652;
      from n684;
      to l652;
      length 800;
      configuration lc607;
}

object underground_line { //692675 {
     phases "ABC";
     name line_692-675;
    from l692;
     to l675;
     length 500;
     configuration lc606;
}

object overhead_line { //632633 {
     phases "ABCN";
     name line_632-633;
     from n632;
     to n633;
     length 500;
     configuration lc602;
}

// Create node objects
object meter { //633 {
     name n633;
     phases "ABCN";
     voltage_A 2401.7771;
     voltage_B -1200.8886-2080.000j;
     voltage_C -1200.8886+2080.000j;
     nominal_voltage 2401.7771;
}

object meter { //630 {
     name n630;
     phases "ABCN";
     voltage_A 2401.7771+0j;
     voltage_B -1200.8886-2080.000j;
     voltage_C -1200.8886+2080.000j;
     nominal_voltage 2401.7771;
}
 
object meter { //632 {
     name n632;
     phases "ABCN";
     voltage_A 2401.7771;
     voltage_B -1200.8886-2080.000j;
     voltage_C -1200.8886+2080.000j;
     nominal_voltage 2401.7771;
}

object meter { //650 {
      name n650;
      phases "ABCN";
      bustype SWING;
      voltage_A 2401.7771;
      voltage_B -1200.8886-2080.000j;
      voltage_C -1200.8886+2080.000j;
      nominal_voltage 2401.7771;
} 
 
object meter { //680 {
       name n680;
       phases "ABCN";
       voltage_A 2401.7771;
       voltage_B -1200.8886-2080.000j;
       voltage_C -1200.8886+2080.000j;
       nominal_voltage 2401.7771;
}
 
 
object meter { //684 {
      name n684;
      phases "ACN";
      voltage_A 2401.7771;
      voltage_B -1200.8886-2080.000j;
      voltage_C -1200.8886+2080.000j;
      nominal_voltage 2401.7771;
} 
 
 
 
// Create load objects 
object meter{
	name meter_Load634;
	phases "ABCN";
     voltage_A 480.000+0j;
     voltage_B -240.000-415.6922j;
     voltage_C -240.000+415.6922j;
     nominal_voltage 480.000;
}

object load { //634 {
     name l634;
	parent meter_Load634;
     phases "ABCN";
     voltage_A 480.000+0j;
     voltage_B -240.000-415.6922j;
     voltage_C -240.000+415.6922j;
     constant_power_A 160000+110000j;
     constant_power_B 120000+90000j;
     constant_power_C 120000+90000j;
     nominal_voltage 480.000;
}

object meter{
    name meter_Load645;
     phases "BCN";
     voltage_A 2401.7771;
     voltage_B -1200.8886-2080.000j;
     voltage_C -1200.8886+2080.000j;
     nominal_voltage 2401.7771;
} 
object load { //645 {
     name l645;
	parent meter_Load645;
     phases "BCN";
     voltage_A 2401.7771;
     voltage_B -1200.8886-2080.000j;
     voltage_C -1200.8886+2080.000j;
     constant_power_B 170000+125000j;
     nominal_voltage 2401.7771;
}
object meter{
    name meter_Load646;
     phases "BCD";
     voltage_A 2401.7771;
     voltage_B -1200.8886-2080.000j;
     voltage_C -1200.8886+2080.000j;
     nominal_voltage 2401.7771;
}

object load { //646 {
     name l646;
	parent meter_Load646;
     phases "BCD";
     voltage_B -1200.8886-2080.000j;
     voltage_C -1200.8886+2080.000j;
     constant_impedance_B 56.5993+32.4831j;
     nominal_voltage 2401.7771;
}
 
object meter{
    name meter_Load652;
     phases "AN";
     voltage_A 2401.7771;
     voltage_B -1200.8886-2080.000j;
     voltage_C -1200.8886+2080.000j;
     nominal_voltage 2401.7771;
}
object load { //652 {
     name l652;
	parent meter_Load652;
     phases "AN";
     voltage_A 2401.7771;
     voltage_B -1200.8886-2080.000j;
     voltage_C -1200.8886+2080.000j;
     constant_impedance_A 31.0501+20.8618j;
     nominal_voltage 2401.7771;
}
 
object load { //671 {
     name l671;
     phases "ABCD";
     voltage_A 2401.7771;
     voltage_B -1200.8886-2080.000j;
     voltage_C -1200.8886+2080.000j;
     constant_power_A 385000+220000j;
     constant_power_B 385000+220000j;
     constant_power_C 385000+220000j;
     nominal_voltage 2401.7771;
}
object meter{
    name meter_Load675;
     phases "ABC";
     voltage_A 2401.7771;
     voltage_B -1200.8886-2080.000j;
     voltage_C -1200.8886+2080.000j;
     nominal_voltage 2401.7771;
} 
object load { //675 {
     name l675;
	parent meter_Load675;
     phases "ABC";
     voltage_A 2401.7771;
     voltage_B -1200.8886-2080.000j;
     voltage_C -1200.8886+2080.000j;
     constant_power_A 485000+190000j;
     constant_power_B 68000+60000j;
     constant_power_C 290000+212000j;
     constant_impedance_A 0.00-28.8427j;          //Shunt Capacitors
     constant_impedance_B 0.00-28.8427j;
     constant_impedance_C 0.00-28.8427j;
     nominal_voltage 2401.7771;
}
 object meter{
    name meter_Load692;
     phases "ABCD";
     voltage_A 2401.7771;
     voltage_B -1200.8886-2080.000j;
     voltage_C -1200.8886+2080.000j;
     nominal_voltage 2401.7771;
}
object load { //692 {
     name l692;
	parent meter_Load692;
     phases "ABCD";
     voltage_A 2401.7771;
     voltage_B -1200.8886-2080.000j;
     voltage_C -1200.8886+2080.000j;
     constant_current_A 0+0j;
     constant_current_B 0+0j;
     constant_current_C -17.2414+51.8677j;
     nominal_voltage 2401.7771;
}
object meter{
    name meter_Load611;
     phases "CN";
     voltage_A 2401.7771;
     voltage_B -1200.8886-2080.000j;
     voltage_C -1200.8886+2080.000j;
     nominal_voltage 2401.7771;
}
object load { //611 {
     name l611;
	parent meter_Load611;
     phases "CN";
     voltage_A 2401.7771;
     voltage_B -1200.8886-2080.000j;
     voltage_C -1200.8886+2080.000j;
     constant_current_C -6.5443+77.9524j;
     constant_impedance_C 0.00-57.6854j;         //Shunt Capacitor
     nominal_voltage 2401.7771;
}
 
// distributed load between node 632 and 671
// 2/3 of load 1/4 of length down line: Kersting p.56
object load { //6711 {
     name l6711;
     parent l671;
     phases "ABC";
     voltage_A 2401.7771;
     voltage_B -1200.8886-2080.000j;
     voltage_C -1200.8886+2080.000j;
     constant_power_A 5666.6667+3333.3333j;
     constant_power_B 22000+12666.6667j;
     constant_power_C 39000+22666.6667j;
     nominal_voltage 2401.7771;
}
object meter{
    name meter_Load6321;
     phases "ABCN";
     voltage_A 2401.7771;
     voltage_B -1200.8886-2080.000j;
     voltage_C -1200.8886+2080.000j;
     nominal_voltage 2401.7771;
}
object load { //6321 {
     name l6321;
	parent meter_Load6321;
     phases "ABCN";
     voltage_A 2401.7771;
     voltage_B -1200.8886-2080.000j;
     voltage_C -1200.8886+2080.000j;
     constant_power_A 11333.333+6666.6667j;
     constant_power_B 44000+25333.3333j;
     constant_power_C 78000+45333.3333j;
     nominal_voltage 2401.7771;
}
 

 
// Switch
object switch {
     phases "ABCN";
     name switch_671-692;
    from l671;
     to l692;
     status CLOSED;
}
 
// Transformer
object transformer_configuration {
	name tc400;
	connect_type WYE_WYE;
  	install_type PADMOUNT;
  	power_rating 500;
  	primary_voltage 4160;
  	secondary_voltage 480;
  	resistance 0.011;
  	reactance 0.02;
}
  
object transformer {
  	phases "ABCN";
  	name transformer_633-634;
  	from n633;
  	to l634;
  	configuration tc400;
}
  
 
// Regulator
object regulator_configuration {
	name regconfig6506321;
	connect_type 1;
	band_center 122.000;
	band_width 100000.0;
	time_delay 30.0;
	raise_taps 16;
	lower_taps 16;
	current_transducer_ratio 700;
	power_transducer_ratio 20;
	compensator_r_setting_A 3.0;
	compensator_r_setting_B 3.0;
	compensator_r_setting_C 3.0;
	compensator_x_setting_A 9.0;
	compensator_x_setting_B 9.0;
	compensator_x_setting_C 9.0;
	CT_phase "ABC";
	PT_phase "ABC";
	regulation 0.10;
	Control MANUAL;
	Type A;
	tap_pos_A 10;
	tap_pos_B 8;
	tap_pos_C 11;
}
  
object regulator {
	 name fregn650n630;
	 phases "ABC";
	 from n650;
	 to n630;
	 configuration regconfig6506321;
}
object multi_recorder{
	interval 3600;
	property l671:constant_power_A,l671:constant_power_B,l671:constant_power_C,l6711:constant_power_A,l6711:constant_power_B,l6711:constant_power_C;
	file Load671Power.csv;
}
object multi_recorder{
	interval 3600;
	property l671:voltage_A,l671:voltage_B,l671:voltage_C,l6711:voltage_A,l6711:voltage_B,l6711:voltage_C;
	file Load671Vol.csv;
}
object player
{
         parent l675;
         property constant_power_A;
         file IEEE13Load_profile_1A.player;
}
object player
{
         parent l675;
         property constant_power_B;
         file IEEE13Load_profile_1B.player;
}
object player
{
         parent l675;
         property constant_power_C;
         file IEEE13Load_profile_1C.player;
}
object player
{
         parent l645;
         property constant_power_B;
         file IEEE13Load_profile_2B.player;
}
object player
{
         parent l6321;
         property constant_power_A;
         file IEEE13Load_profile_3A.player;
}
object player
{
         parent l6321;
         property constant_power_B;
         file IEEE13Load_profile_3B.player;
}
object player
{
         parent l6321;
         property constant_power_C;
         file IEEE13Load_profile_3C.player;
}
object player
{
         parent l6711;
         property constant_power_A;
         file IEEE13Load_profile_4A.player;
}
object player
{
         parent l6711;
         property constant_power_B;
         file IEEE13Load_profile_4B.player;
}
object player
{
         parent l6711;
         property constant_power_C;
         file IEEE13Load_profile_4C.player;
}
object player
{
         parent l634;
         property constant_power_A;
         file IEEE13Load_profile_5A.player;
}
object player
{
         parent l634;
         property constant_power_B;
         file IEEE13Load_profile_5B.player;
}
object player
{
         parent l634;
         property constant_power_C;
         file IEEE13Load_profile_5C.player;
}
object player
{
         parent l671;
         property constant_power_A;
         file IEEE13Load_profile_6A.player;
}
object player
{
         parent l671;
         property constant_power_B;
         file IEEE13Load_profile_6B.player;
}
object player
{
         parent l671;
         property constant_power_C;
         file IEEE13Load_profile_6C.player;
}
object voltdump
{
         filename "output_voltage_0.csv";
         runtime '2000-01-01 00:01:00';
         mode polar;
}
object voltdump
{
         filename "output_voltage_1.csv";
         runtime '2000-01-01 01:01:00';
         mode polar;
}
object voltdump
{
         filename "output_voltage_2.csv";
         runtime '2000-01-01 02:01:00';
         mode polar;
}
object voltdump
{
         filename "output_voltage_3.csv";
         runtime '2000-01-01 03:01:00';
         mode polar;
}
object voltdump
{
         filename "output_voltage_4.csv";
         runtime '2000-01-01 04:01:00';
         mode polar;
}
object voltdump
{
         filename "output_voltage_5.csv";
         runtime '2000-01-01 05:01:00';
         mode polar;
}
object voltdump
{
         filename "output_voltage_6.csv";
         runtime '2000-01-01 06:01:00';
         mode polar;
}
object voltdump
{
         filename "output_voltage_7.csv";
         runtime '2000-01-01 07:01:00';
         mode polar;
}
object voltdump
{
         filename "output_voltage_8.csv";
         runtime '2000-01-01 08:01:00';
         mode polar;
}
object voltdump
{
         filename "output_voltage_9.csv";
         runtime '2000-01-01 09:01:00';
         mode polar;
}
object voltdump
{
         filename "output_voltage_10.csv";
         runtime '2000-01-01 10:01:00';
         mode polar;
}
object voltdump
{
         filename "output_voltage_11.csv";
         runtime '2000-01-01 11:01:00';
         mode polar;
}
object voltdump
{
         filename "output_voltage_12.csv";
         runtime '2000-01-01 12:01:00';
         mode polar;
}
object voltdump
{
         filename "output_voltage_13.csv";
         runtime '2000-01-01 13:01:00';
         mode polar;
}
object voltdump
{
         filename "output_voltage_14.csv";
         runtime '2000-01-01 14:01:00';
         mode polar;
}
object voltdump
{
         filename "output_voltage_15.csv";
         runtime '2000-01-01 15:01:00';
         mode polar;
}
object voltdump
{
         filename "output_voltage_16.csv";
         runtime '2000-01-01 16:01:00';
         mode polar;
}
object voltdump
{
         filename "output_voltage_17.csv";
         runtime '2000-01-01 17:01:00';
         mode polar;
}
object voltdump
{
         filename "output_voltage_18.csv";
         runtime '2000-01-01 18:01:00';
         mode polar;
}
object voltdump
{
         filename "output_voltage_19.csv";
         runtime '2000-01-01 19:01:00';
         mode polar;
}
object voltdump
{
         filename "output_voltage_20.csv";
         runtime '2000-01-01 20:01:00';
         mode polar;
}
object voltdump
{
         filename "output_voltage_21.csv";
         runtime '2000-01-01 21:01:00';
         mode polar;
}
object voltdump
{
         filename "output_voltage_22.csv";
         runtime '2000-01-01 22:01:00';
         mode polar;
}
object voltdump
{
         filename "output_voltage_23.csv";
         runtime '2000-01-01 23:01:00';
         mode polar;
}
object voltdump
{
         filename "output_voltage_24.csv";
         runtime '2000-01-02 00:01:00';
         mode polar;
}
object voltdump
{
         filename "output_voltage_25.csv";
         runtime '2000-01-02 01:01:00';
         mode polar;
}
object voltdump
{
         filename "output_voltage_26.csv";
         runtime '2000-01-02 02:01:00';
         mode polar;
}
object voltdump
{
         filename "output_voltage_27.csv";
         runtime '2000-01-02 03:01:00';
         mode polar;
}
object voltdump
{
         filename "output_voltage_28.csv";
         runtime '2000-01-02 04:01:00';
         mode polar;
}
object voltdump
{
         filename "output_voltage_29.csv";
         runtime '2000-01-02 05:01:00';
         mode polar;
}
object voltdump
{
         filename "output_voltage_30.csv";
         runtime '2000-01-02 06:01:00';
         mode polar;
}
object voltdump
{
         filename "output_voltage_31.csv";
         runtime '2000-01-02 07:01:00';
         mode polar;
}
object voltdump
{
         filename "output_voltage_32.csv";
         runtime '2000-01-02 08:01:00';
         mode polar;
}
object voltdump
{
         filename "output_voltage_33.csv";
         runtime '2000-01-02 09:01:00';
         mode polar;
}
object voltdump
{
         filename "output_voltage_34.csv";
         runtime '2000-01-02 10:01:00';
         mode polar;
}
object voltdump
{
         filename "output_voltage_35.csv";
         runtime '2000-01-02 11:01:00';
         mode polar;
}
object voltdump
{
         filename "output_voltage_36.csv";
         runtime '2000-01-02 12:01:00';
         mode polar;
}
object voltdump
{
         filename "output_voltage_37.csv";
         runtime '2000-01-02 13:01:00';
         mode polar;
}
object voltdump
{
         filename "output_voltage_38.csv";
         runtime '2000-01-02 14:01:00';
         mode polar;
}
object voltdump
{
         filename "output_voltage_39.csv";
         runtime '2000-01-02 15:01:00';
         mode polar;
}
object voltdump
{
         filename "output_voltage_40.csv";
         runtime '2000-01-02 16:01:00';
         mode polar;
}
object voltdump
{
         filename "output_voltage_41.csv";
         runtime '2000-01-02 17:01:00';
         mode polar;
}
object voltdump
{
         filename "output_voltage_42.csv";
         runtime '2000-01-02 18:01:00';
         mode polar;
}
object voltdump
{
         filename "output_voltage_43.csv";
         runtime '2000-01-02 19:01:00';
         mode polar;
}
object voltdump
{
         filename "output_voltage_44.csv";
         runtime '2000-01-02 20:01:00';
         mode polar;
}
object voltdump
{
         filename "output_voltage_45.csv";
         runtime '2000-01-02 21:01:00';
         mode polar;
}
object voltdump
{
         filename "output_voltage_46.csv";
         runtime '2000-01-02 22:01:00';
         mode polar;
}
object voltdump
{
         filename "output_voltage_47.csv";
         runtime '2000-01-02 23:01:00';
         mode polar;
}
object voltdump
{
         filename "output_voltage_48.csv";
         runtime '2000-01-03 00:01:00';
         mode polar;
}
object voltdump
{
         filename "output_voltage_49.csv";
         runtime '2000-01-03 01:01:00';
         mode polar;
}
object voltdump
{
         filename "output_voltage_50.csv";
         runtime '2000-01-03 02:01:00';
         mode polar;
}
object voltdump
{
         filename "output_voltage_51.csv";
         runtime '2000-01-03 03:01:00';
         mode polar;
}
object voltdump
{
         filename "output_voltage_52.csv";
         runtime '2000-01-03 04:01:00';
         mode polar;
}
object voltdump
{
         filename "output_voltage_53.csv";
         runtime '2000-01-03 05:01:00';
         mode polar;
}
object voltdump
{
         filename "output_voltage_54.csv";
         runtime '2000-01-03 06:01:00';
         mode polar;
}
object voltdump
{
         filename "output_voltage_55.csv";
         runtime '2000-01-03 07:01:00';
         mode polar;
}
object voltdump
{
         filename "output_voltage_56.csv";
         runtime '2000-01-03 08:01:00';
         mode polar;
}
object voltdump
{
         filename "output_voltage_57.csv";
         runtime '2000-01-03 09:01:00';
         mode polar;
}
object voltdump
{
         filename "output_voltage_58.csv";
         runtime '2000-01-03 10:01:00';
         mode polar;
}
object voltdump
{
         filename "output_voltage_59.csv";
         runtime '2000-01-03 11:01:00';
         mode polar;
}
object voltdump
{
         filename "output_voltage_60.csv";
         runtime '2000-01-03 12:01:00';
         mode polar;
}
object voltdump
{
         filename "output_voltage_61.csv";
         runtime '2000-01-03 13:01:00';
         mode polar;
}
object voltdump
{
         filename "output_voltage_62.csv";
         runtime '2000-01-03 14:01:00';
         mode polar;
}
object voltdump
{
         filename "output_voltage_63.csv";
         runtime '2000-01-03 15:01:00';
         mode polar;
}
object voltdump
{
         filename "output_voltage_64.csv";
         runtime '2000-01-03 16:01:00';
         mode polar;
}
object voltdump
{
         filename "output_voltage_65.csv";
         runtime '2000-01-03 17:01:00';
         mode polar;
}
object voltdump
{
         filename "output_voltage_66.csv";
         runtime '2000-01-03 18:01:00';
         mode polar;
}
object voltdump
{
         filename "output_voltage_67.csv";
         runtime '2000-01-03 19:01:00';
         mode polar;
}
object voltdump
{
         filename "output_voltage_68.csv";
         runtime '2000-01-03 20:01:00';
         mode polar;
}
object voltdump
{
         filename "output_voltage_69.csv";
         runtime '2000-01-03 21:01:00';
         mode polar;
}
object voltdump
{
         filename "output_voltage_70.csv";
         runtime '2000-01-03 22:01:00';
         mode polar;
}
object voltdump
{
         filename "output_voltage_71.csv";
         runtime '2000-01-03 23:01:00';
         mode polar;
}
object voltdump
{
         filename "output_voltage_72.csv";
         runtime '2000-01-04 00:01:00';
         mode polar;
}
object voltdump
{
         filename "output_voltage_73.csv";
         runtime '2000-01-04 01:01:00';
         mode polar;
}
object voltdump
{
         filename "output_voltage_74.csv";
         runtime '2000-01-04 02:01:00';
         mode polar;
}
object voltdump
{
         filename "output_voltage_75.csv";
         runtime '2000-01-04 03:01:00';
         mode polar;
}
object voltdump
{
         filename "output_voltage_76.csv";
         runtime '2000-01-04 04:01:00';
         mode polar;
}
object voltdump
{
         filename "output_voltage_77.csv";
         runtime '2000-01-04 05:01:00';
         mode polar;
}
object voltdump
{
         filename "output_voltage_78.csv";
         runtime '2000-01-04 06:01:00';
         mode polar;
}
object voltdump
{
         filename "output_voltage_79.csv";
         runtime '2000-01-04 07:01:00';
         mode polar;
}
object voltdump
{
         filename "output_voltage_80.csv";
         runtime '2000-01-04 08:01:00';
         mode polar;
}
object voltdump
{
         filename "output_voltage_81.csv";
         runtime '2000-01-04 09:01:00';
         mode polar;
}
object voltdump
{
         filename "output_voltage_82.csv";
         runtime '2000-01-04 10:01:00';
         mode polar;
}
object voltdump
{
         filename "output_voltage_83.csv";
         runtime '2000-01-04 11:01:00';
         mode polar;
}
object voltdump
{
         filename "output_voltage_84.csv";
         runtime '2000-01-04 12:01:00';
         mode polar;
}
object voltdump
{
         filename "output_voltage_85.csv";
         runtime '2000-01-04 13:01:00';
         mode polar;
}
object voltdump
{
         filename "output_voltage_86.csv";
         runtime '2000-01-04 14:01:00';
         mode polar;
}
object voltdump
{
         filename "output_voltage_87.csv";
         runtime '2000-01-04 15:01:00';
         mode polar;
}
object voltdump
{
         filename "output_voltage_88.csv";
         runtime '2000-01-04 16:01:00';
         mode polar;
}
object voltdump
{
         filename "output_voltage_89.csv";
         runtime '2000-01-04 17:01:00';
         mode polar;
}
object voltdump
{
         filename "output_voltage_90.csv";
         runtime '2000-01-04 18:01:00';
         mode polar;
}
object voltdump
{
         filename "output_voltage_91.csv";
         runtime '2000-01-04 19:01:00';
         mode polar;
}
object voltdump
{
         filename "output_voltage_92.csv";
         runtime '2000-01-04 20:01:00';
         mode polar;
}
object voltdump
{
         filename "output_voltage_93.csv";
         runtime '2000-01-04 21:01:00';
         mode polar;
}
object voltdump
{
         filename "output_voltage_94.csv";
         runtime '2000-01-04 22:01:00';
         mode polar;
}
object voltdump
{
         filename "output_voltage_95.csv";
         runtime '2000-01-04 23:01:00';
         mode polar;
}
object voltdump
{
         filename "output_voltage_96.csv";
         runtime '2000-01-05 00:01:00';
         mode polar;
}
object voltdump
{
         filename "output_voltage_97.csv";
         runtime '2000-01-05 01:01:00';
         mode polar;
}
object voltdump
{
         filename "output_voltage_98.csv";
         runtime '2000-01-05 02:01:00';
         mode polar;
}
object voltdump
{
         filename "output_voltage_99.csv";
         runtime '2000-01-05 03:01:00';
         mode polar;
}
object voltdump
{
         filename "output_voltage_100.csv";
         runtime '2000-01-05 04:01:00';
         mode polar;
}
object voltdump
{
         filename "output_voltage_101.csv";
         runtime '2000-01-05 05:01:00';
         mode polar;
}
object voltdump
{
         filename "output_voltage_102.csv";
         runtime '2000-01-05 06:01:00';
         mode polar;
}
object voltdump
{
         filename "output_voltage_103.csv";
         runtime '2000-01-05 07:01:00';
         mode polar;
}
object voltdump
{
         filename "output_voltage_104.csv";
         runtime '2000-01-05 08:01:00';
         mode polar;
}
object voltdump
{
         filename "output_voltage_105.csv";
         runtime '2000-01-05 09:01:00';
         mode polar;
}
object voltdump
{
         filename "output_voltage_106.csv";
         runtime '2000-01-05 10:01:00';
         mode polar;
}
object voltdump
{
         filename "output_voltage_107.csv";
         runtime '2000-01-05 11:01:00';
         mode polar;
}
object voltdump
{
         filename "output_voltage_108.csv";
         runtime '2000-01-05 12:01:00';
         mode polar;
}
object voltdump
{
         filename "output_voltage_109.csv";
         runtime '2000-01-05 13:01:00';
         mode polar;
}
object voltdump
{
         filename "output_voltage_110.csv";
         runtime '2000-01-05 14:01:00';
         mode polar;
}
object voltdump
{
         filename "output_voltage_111.csv";
         runtime '2000-01-05 15:01:00';
         mode polar;
}
object voltdump
{
         filename "output_voltage_112.csv";
         runtime '2000-01-05 16:01:00';
         mode polar;
}
object voltdump
{
         filename "output_voltage_113.csv";
         runtime '2000-01-05 17:01:00';
         mode polar;
}
object voltdump
{
         filename "output_voltage_114.csv";
         runtime '2000-01-05 18:01:00';
         mode polar;
}
object voltdump
{
         filename "output_voltage_115.csv";
         runtime '2000-01-05 19:01:00';
         mode polar;
}
object voltdump
{
         filename "output_voltage_116.csv";
         runtime '2000-01-05 20:01:00';
         mode polar;
}
object voltdump
{
         filename "output_voltage_117.csv";
         runtime '2000-01-05 21:01:00';
         mode polar;
}
object voltdump
{
         filename "output_voltage_118.csv";
         runtime '2000-01-05 22:01:00';
         mode polar;
}
object voltdump
{
         filename "output_voltage_119.csv";
         runtime '2000-01-05 23:01:00';
         mode polar;
}
object voltdump
{
         filename "output_voltage_120.csv";
         runtime '2000-01-06 00:01:00';
         mode polar;
}
object voltdump
{
         filename "output_voltage_121.csv";
         runtime '2000-01-06 01:01:00';
         mode polar;
}
object voltdump
{
         filename "output_voltage_122.csv";
         runtime '2000-01-06 02:01:00';
         mode polar;
}
object voltdump
{
         filename "output_voltage_123.csv";
         runtime '2000-01-06 03:01:00';
         mode polar;
}
object voltdump
{
         filename "output_voltage_124.csv";
         runtime '2000-01-06 04:01:00';
         mode polar;
}
object voltdump
{
         filename "output_voltage_125.csv";
         runtime '2000-01-06 05:01:00';
         mode polar;
}
object voltdump
{
         filename "output_voltage_126.csv";
         runtime '2000-01-06 06:01:00';
         mode polar;
}
object voltdump
{
         filename "output_voltage_127.csv";
         runtime '2000-01-06 07:01:00';
         mode polar;
}
object voltdump
{
         filename "output_voltage_128.csv";
         runtime '2000-01-06 08:01:00';
         mode polar;
}
object voltdump
{
         filename "output_voltage_129.csv";
         runtime '2000-01-06 09:01:00';
         mode polar;
}
object voltdump
{
         filename "output_voltage_130.csv";
         runtime '2000-01-06 10:01:00';
         mode polar;
}
object voltdump
{
         filename "output_voltage_131.csv";
         runtime '2000-01-06 11:01:00';
         mode polar;
}
object voltdump
{
         filename "output_voltage_132.csv";
         runtime '2000-01-06 12:01:00';
         mode polar;
}
object voltdump
{
         filename "output_voltage_133.csv";
         runtime '2000-01-06 13:01:00';
         mode polar;
}
object voltdump
{
         filename "output_voltage_134.csv";
         runtime '2000-01-06 14:01:00';
         mode polar;
}
object voltdump
{
         filename "output_voltage_135.csv";
         runtime '2000-01-06 15:01:00';
         mode polar;
}
object voltdump
{
         filename "output_voltage_136.csv";
         runtime '2000-01-06 16:01:00';
         mode polar;
}
object voltdump
{
         filename "output_voltage_137.csv";
         runtime '2000-01-06 17:01:00';
         mode polar;
}
object voltdump
{
         filename "output_voltage_138.csv";
         runtime '2000-01-06 18:01:00';
         mode polar;
}
object voltdump
{
         filename "output_voltage_139.csv";
         runtime '2000-01-06 19:01:00';
         mode polar;
}
object voltdump
{
         filename "output_voltage_140.csv";
         runtime '2000-01-06 20:01:00';
         mode polar;
}
object voltdump
{
         filename "output_voltage_141.csv";
         runtime '2000-01-06 21:01:00';
         mode polar;
}
object voltdump
{
         filename "output_voltage_142.csv";
         runtime '2000-01-06 22:01:00';
         mode polar;
}
object voltdump
{
         filename "output_voltage_143.csv";
         runtime '2000-01-06 23:01:00';
         mode polar;
}
object voltdump
{
         filename "output_voltage_144.csv";
         runtime '2000-01-07 00:01:00';
         mode polar;
}
object voltdump
{
         filename "output_voltage_145.csv";
         runtime '2000-01-07 01:01:00';
         mode polar;
}
object voltdump
{
         filename "output_voltage_146.csv";
         runtime '2000-01-07 02:01:00';
         mode polar;
}
object voltdump
{
         filename "output_voltage_147.csv";
         runtime '2000-01-07 03:01:00';
         mode polar;
}
object voltdump
{
         filename "output_voltage_148.csv";
         runtime '2000-01-07 04:01:00';
         mode polar;
}
object voltdump
{
         filename "output_voltage_149.csv";
         runtime '2000-01-07 05:01:00';
         mode polar;
}
object voltdump
{
         filename "output_voltage_150.csv";
         runtime '2000-01-07 06:01:00';
         mode polar;
}
object voltdump
{
         filename "output_voltage_151.csv";
         runtime '2000-01-07 07:01:00';
         mode polar;
}
object voltdump
{
         filename "output_voltage_152.csv";
         runtime '2000-01-07 08:01:00';
         mode polar;
}
object voltdump
{
         filename "output_voltage_153.csv";
         runtime '2000-01-07 09:01:00';
         mode polar;
}
object voltdump
{
         filename "output_voltage_154.csv";
         runtime '2000-01-07 10:01:00';
         mode polar;
}
object voltdump
{
         filename "output_voltage_155.csv";
         runtime '2000-01-07 11:01:00';
         mode polar;
}
object voltdump
{
         filename "output_voltage_156.csv";
         runtime '2000-01-07 12:01:00';
         mode polar;
}
object voltdump
{
         filename "output_voltage_157.csv";
         runtime '2000-01-07 13:01:00';
         mode polar;
}
object voltdump
{
         filename "output_voltage_158.csv";
         runtime '2000-01-07 14:01:00';
         mode polar;
}
object voltdump
{
         filename "output_voltage_159.csv";
         runtime '2000-01-07 15:01:00';
         mode polar;
}
object voltdump
{
         filename "output_voltage_160.csv";
         runtime '2000-01-07 16:01:00';
         mode polar;
}
object voltdump
{
         filename "output_voltage_161.csv";
         runtime '2000-01-07 17:01:00';
         mode polar;
}
object voltdump
{
         filename "output_voltage_162.csv";
         runtime '2000-01-07 18:01:00';
         mode polar;
}
object voltdump
{
         filename "output_voltage_163.csv";
         runtime '2000-01-07 19:01:00';
         mode polar;
}
object voltdump
{
         filename "output_voltage_164.csv";
         runtime '2000-01-07 20:01:00';
         mode polar;
}
object voltdump
{
         filename "output_voltage_165.csv";
         runtime '2000-01-07 21:01:00';
         mode polar;
}
object voltdump
{
         filename "output_voltage_166.csv";
         runtime '2000-01-07 22:01:00';
         mode polar;
}
object voltdump
{
         filename "output_voltage_167.csv";
         runtime '2000-01-07 23:01:00';
         mode polar;
}
object voltdump
{
         filename "output_voltage_168.csv";
         runtime '2000-01-08 00:01:00';
         mode polar;
}
object voltdump
{
         filename "output_voltage_169.csv";
         runtime '2000-01-08 01:01:00';
         mode polar;
}
object voltdump
{
         filename "output_voltage_170.csv";
         runtime '2000-01-08 02:01:00';
         mode polar;
}
object voltdump
{
         filename "output_voltage_171.csv";
         runtime '2000-01-08 03:01:00';
         mode polar;
}
object voltdump
{
         filename "output_voltage_172.csv";
         runtime '2000-01-08 04:01:00';
         mode polar;
}
object voltdump
{
         filename "output_voltage_173.csv";
         runtime '2000-01-08 05:01:00';
         mode polar;
}
object voltdump
{
         filename "output_voltage_174.csv";
         runtime '2000-01-08 06:01:00';
         mode polar;
}
object voltdump
{
         filename "output_voltage_175.csv";
         runtime '2000-01-08 07:01:00';
         mode polar;
}
object voltdump
{
         filename "output_voltage_176.csv";
         runtime '2000-01-08 08:01:00';
         mode polar;
}
object voltdump
{
         filename "output_voltage_177.csv";
         runtime '2000-01-08 09:01:00';
         mode polar;
}
object voltdump
{
         filename "output_voltage_178.csv";
         runtime '2000-01-08 10:01:00';
         mode polar;
}
object voltdump
{
         filename "output_voltage_179.csv";
         runtime '2000-01-08 11:01:00';
         mode polar;
}
object voltdump
{
         filename "output_voltage_180.csv";
         runtime '2000-01-08 12:01:00';
         mode polar;
}
object voltdump
{
         filename "output_voltage_181.csv";
         runtime '2000-01-08 13:01:00';
         mode polar;
}
object voltdump
{
         filename "output_voltage_182.csv";
         runtime '2000-01-08 14:01:00';
         mode polar;
}
object voltdump
{
         filename "output_voltage_183.csv";
         runtime '2000-01-08 15:01:00';
         mode polar;
}
object voltdump
{
         filename "output_voltage_184.csv";
         runtime '2000-01-08 16:01:00';
         mode polar;
}
object voltdump
{
         filename "output_voltage_185.csv";
         runtime '2000-01-08 17:01:00';
         mode polar;
}
object voltdump
{
         filename "output_voltage_186.csv";
         runtime '2000-01-08 18:01:00';
         mode polar;
}
object voltdump
{
         filename "output_voltage_187.csv";
         runtime '2000-01-08 19:01:00';
         mode polar;
}
object voltdump
{
         filename "output_voltage_188.csv";
         runtime '2000-01-08 20:01:00';
         mode polar;
}
object voltdump
{
         filename "output_voltage_189.csv";
         runtime '2000-01-08 21:01:00';
         mode polar;
}
object voltdump
{
         filename "output_voltage_190.csv";
         runtime '2000-01-08 22:01:00';
         mode polar;
}
object voltdump
{
         filename "output_voltage_191.csv";
         runtime '2000-01-08 23:01:00';
         mode polar;
}
object voltdump
{
         filename "output_voltage_192.csv";
         runtime '2000-01-09 00:01:00';
         mode polar;
}
object voltdump
{
         filename "output_voltage_193.csv";
         runtime '2000-01-09 01:01:00';
         mode polar;
}
object voltdump
{
         filename "output_voltage_194.csv";
         runtime '2000-01-09 02:01:00';
         mode polar;
}
object voltdump
{
         filename "output_voltage_195.csv";
         runtime '2000-01-09 03:01:00';
         mode polar;
}
object voltdump
{
         filename "output_voltage_196.csv";
         runtime '2000-01-09 04:01:00';
         mode polar;
}
object voltdump
{
         filename "output_voltage_197.csv";
         runtime '2000-01-09 05:01:00';
         mode polar;
}
object voltdump
{
         filename "output_voltage_198.csv";
         runtime '2000-01-09 06:01:00';
         mode polar;
}
object voltdump
{
         filename "output_voltage_199.csv";
         runtime '2000-01-09 07:01:00';
         mode polar;
}
object voltdump
{
         filename "output_voltage_200.csv";
         runtime '2000-01-09 08:01:00';
         mode polar;
}
object voltdump
{
         filename "output_voltage_201.csv";
         runtime '2000-01-09 09:01:00';
         mode polar;
}
object voltdump
{
         filename "output_voltage_202.csv";
         runtime '2000-01-09 10:01:00';
         mode polar;
}
object voltdump
{
         filename "output_voltage_203.csv";
         runtime '2000-01-09 11:01:00';
         mode polar;
}
object voltdump
{
         filename "output_voltage_204.csv";
         runtime '2000-01-09 12:01:00';
         mode polar;
}
object voltdump
{
         filename "output_voltage_205.csv";
         runtime '2000-01-09 13:01:00';
         mode polar;
}
object voltdump
{
         filename "output_voltage_206.csv";
         runtime '2000-01-09 14:01:00';
         mode polar;
}
object voltdump
{
         filename "output_voltage_207.csv";
         runtime '2000-01-09 15:01:00';
         mode polar;
}
object voltdump
{
         filename "output_voltage_208.csv";
         runtime '2000-01-09 16:01:00';
         mode polar;
}
object voltdump
{
         filename "output_voltage_209.csv";
         runtime '2000-01-09 17:01:00';
         mode polar;
}
object voltdump
{
         filename "output_voltage_210.csv";
         runtime '2000-01-09 18:01:00';
         mode polar;
}
object voltdump
{
         filename "output_voltage_211.csv";
         runtime '2000-01-09 19:01:00';
         mode polar;
}
object voltdump
{
         filename "output_voltage_212.csv";
         runtime '2000-01-09 20:01:00';
         mode polar;
}
object voltdump
{
         filename "output_voltage_213.csv";
         runtime '2000-01-09 21:01:00';
         mode polar;
}
object voltdump
{
         filename "output_voltage_214.csv";
         runtime '2000-01-09 22:01:00';
         mode polar;
}
object voltdump
{
         filename "output_voltage_215.csv";
         runtime '2000-01-09 23:01:00';
         mode polar;
}
object voltdump
{
         filename "output_voltage_216.csv";
         runtime '2000-01-10 00:01:00';
         mode polar;
}
object voltdump
{
         filename "output_voltage_217.csv";
         runtime '2000-01-10 01:01:00';
         mode polar;
}
object voltdump
{
         filename "output_voltage_218.csv";
         runtime '2000-01-10 02:01:00';
         mode polar;
}
object voltdump
{
         filename "output_voltage_219.csv";
         runtime '2000-01-10 03:01:00';
         mode polar;
}
object voltdump
{
         filename "output_voltage_220.csv";
         runtime '2000-01-10 04:01:00';
         mode polar;
}
object voltdump
{
         filename "output_voltage_221.csv";
         runtime '2000-01-10 05:01:00';
         mode polar;
}
object voltdump
{
         filename "output_voltage_222.csv";
         runtime '2000-01-10 06:01:00';
         mode polar;
}
object voltdump
{
         filename "output_voltage_223.csv";
         runtime '2000-01-10 07:01:00';
         mode polar;
}
object voltdump
{
         filename "output_voltage_224.csv";
         runtime '2000-01-10 08:01:00';
         mode polar;
}
object voltdump
{
         filename "output_voltage_225.csv";
         runtime '2000-01-10 09:01:00';
         mode polar;
}
object voltdump
{
         filename "output_voltage_226.csv";
         runtime '2000-01-10 10:01:00';
         mode polar;
}
object voltdump
{
         filename "output_voltage_227.csv";
         runtime '2000-01-10 11:01:00';
         mode polar;
}
object voltdump
{
         filename "output_voltage_228.csv";
         runtime '2000-01-10 12:01:00';
         mode polar;
}
object voltdump
{
         filename "output_voltage_229.csv";
         runtime '2000-01-10 13:01:00';
         mode polar;
}
object voltdump
{
         filename "output_voltage_230.csv";
         runtime '2000-01-10 14:01:00';
         mode polar;
}
object voltdump
{
         filename "output_voltage_231.csv";
         runtime '2000-01-10 15:01:00';
         mode polar;
}
object voltdump
{
         filename "output_voltage_232.csv";
         runtime '2000-01-10 16:01:00';
         mode polar;
}
object voltdump
{
         filename "output_voltage_233.csv";
         runtime '2000-01-10 17:01:00';
         mode polar;
}
object voltdump
{
         filename "output_voltage_234.csv";
         runtime '2000-01-10 18:01:00';
         mode polar;
}
object voltdump
{
         filename "output_voltage_235.csv";
         runtime '2000-01-10 19:01:00';
         mode polar;
}
object voltdump
{
         filename "output_voltage_236.csv";
         runtime '2000-01-10 20:01:00';
         mode polar;
}
object voltdump
{
         filename "output_voltage_237.csv";
         runtime '2000-01-10 21:01:00';
         mode polar;
}
object voltdump
{
         filename "output_voltage_238.csv";
         runtime '2000-01-10 22:01:00';
         mode polar;
}
object voltdump
{
         filename "output_voltage_239.csv";
         runtime '2000-01-10 23:01:00';
         mode polar;
}
object voltdump
{
         filename "output_voltage_240.csv";
         runtime '2000-01-11 00:01:00';
         mode polar;
}
object voltdump
{
         filename "output_voltage_241.csv";
         runtime '2000-01-11 01:01:00';
         mode polar;
}
object voltdump
{
         filename "output_voltage_242.csv";
         runtime '2000-01-11 02:01:00';
         mode polar;
}
object voltdump
{
         filename "output_voltage_243.csv";
         runtime '2000-01-11 03:01:00';
         mode polar;
}
object voltdump
{
         filename "output_voltage_244.csv";
         runtime '2000-01-11 04:01:00';
         mode polar;
}
object voltdump
{
         filename "output_voltage_245.csv";
         runtime '2000-01-11 05:01:00';
         mode polar;
}
object voltdump
{
         filename "output_voltage_246.csv";
         runtime '2000-01-11 06:01:00';
         mode polar;
}
object voltdump
{
         filename "output_voltage_247.csv";
         runtime '2000-01-11 07:01:00';
         mode polar;
}
object voltdump
{
         filename "output_voltage_248.csv";
         runtime '2000-01-11 08:01:00';
         mode polar;
}
object voltdump
{
         filename "output_voltage_249.csv";
         runtime '2000-01-11 09:01:00';
         mode polar;
}
object voltdump
{
         filename "output_voltage_250.csv";
         runtime '2000-01-11 10:01:00';
         mode polar;
}
object voltdump
{
         filename "output_voltage_251.csv";
         runtime '2000-01-11 11:01:00';
         mode polar;
}
object voltdump
{
         filename "output_voltage_252.csv";
         runtime '2000-01-11 12:01:00';
         mode polar;
}
object voltdump
{
         filename "output_voltage_253.csv";
         runtime '2000-01-11 13:01:00';
         mode polar;
}
object voltdump
{
         filename "output_voltage_254.csv";
         runtime '2000-01-11 14:01:00';
         mode polar;
}
object voltdump
{
         filename "output_voltage_255.csv";
         runtime '2000-01-11 15:01:00';
         mode polar;
}
object voltdump
{
         filename "output_voltage_256.csv";
         runtime '2000-01-11 16:01:00';
         mode polar;
}
object voltdump
{
         filename "output_voltage_257.csv";
         runtime '2000-01-11 17:01:00';
         mode polar;
}
object voltdump
{
         filename "output_voltage_258.csv";
         runtime '2000-01-11 18:01:00';
         mode polar;
}
object voltdump
{
         filename "output_voltage_259.csv";
         runtime '2000-01-11 19:01:00';
         mode polar;
}
object voltdump
{
         filename "output_voltage_260.csv";
         runtime '2000-01-11 20:01:00';
         mode polar;
}
object voltdump
{
         filename "output_voltage_261.csv";
         runtime '2000-01-11 21:01:00';
         mode polar;
}
object voltdump
{
         filename "output_voltage_262.csv";
         runtime '2000-01-11 22:01:00';
         mode polar;
}
object voltdump
{
         filename "output_voltage_263.csv";
         runtime '2000-01-11 23:01:00';
         mode polar;
}
object voltdump
{
         filename "output_voltage_264.csv";
         runtime '2000-01-12 00:01:00';
         mode polar;
}
object voltdump
{
         filename "output_voltage_265.csv";
         runtime '2000-01-12 01:01:00';
         mode polar;
}
object voltdump
{
         filename "output_voltage_266.csv";
         runtime '2000-01-12 02:01:00';
         mode polar;
}
object voltdump
{
         filename "output_voltage_267.csv";
         runtime '2000-01-12 03:01:00';
         mode polar;
}
object voltdump
{
         filename "output_voltage_268.csv";
         runtime '2000-01-12 04:01:00';
         mode polar;
}
object voltdump
{
         filename "output_voltage_269.csv";
         runtime '2000-01-12 05:01:00';
         mode polar;
}
object voltdump
{
         filename "output_voltage_270.csv";
         runtime '2000-01-12 06:01:00';
         mode polar;
}
object voltdump
{
         filename "output_voltage_271.csv";
         runtime '2000-01-12 07:01:00';
         mode polar;
}
object voltdump
{
         filename "output_voltage_272.csv";
         runtime '2000-01-12 08:01:00';
         mode polar;
}
object voltdump
{
         filename "output_voltage_273.csv";
         runtime '2000-01-12 09:01:00';
         mode polar;
}
object voltdump
{
         filename "output_voltage_274.csv";
         runtime '2000-01-12 10:01:00';
         mode polar;
}
object voltdump
{
         filename "output_voltage_275.csv";
         runtime '2000-01-12 11:01:00';
         mode polar;
}
object voltdump
{
         filename "output_voltage_276.csv";
         runtime '2000-01-12 12:01:00';
         mode polar;
}
object voltdump
{
         filename "output_voltage_277.csv";
         runtime '2000-01-12 13:01:00';
         mode polar;
}
object voltdump
{
         filename "output_voltage_278.csv";
         runtime '2000-01-12 14:01:00';
         mode polar;
}
object voltdump
{
         filename "output_voltage_279.csv";
         runtime '2000-01-12 15:01:00';
         mode polar;
}
object voltdump
{
         filename "output_voltage_280.csv";
         runtime '2000-01-12 16:01:00';
         mode polar;
}
object voltdump
{
         filename "output_voltage_281.csv";
         runtime '2000-01-12 17:01:00';
         mode polar;
}
object voltdump
{
         filename "output_voltage_282.csv";
         runtime '2000-01-12 18:01:00';
         mode polar;
}
object voltdump
{
         filename "output_voltage_283.csv";
         runtime '2000-01-12 19:01:00';
         mode polar;
}
object voltdump
{
         filename "output_voltage_284.csv";
         runtime '2000-01-12 20:01:00';
         mode polar;
}
object voltdump
{
         filename "output_voltage_285.csv";
         runtime '2000-01-12 21:01:00';
         mode polar;
}
object voltdump
{
         filename "output_voltage_286.csv";
         runtime '2000-01-12 22:01:00';
         mode polar;
}
object voltdump
{
         filename "output_voltage_287.csv";
         runtime '2000-01-12 23:01:00';
         mode polar;
}
object voltdump
{
         filename "output_voltage_288.csv";
         runtime '2000-01-13 00:01:00';
         mode polar;
}
object voltdump
{
         filename "output_voltage_289.csv";
         runtime '2000-01-13 01:01:00';
         mode polar;
}
object voltdump
{
         filename "output_voltage_290.csv";
         runtime '2000-01-13 02:01:00';
         mode polar;
}
object voltdump
{
         filename "output_voltage_291.csv";
         runtime '2000-01-13 03:01:00';
         mode polar;
}
object voltdump
{
         filename "output_voltage_292.csv";
         runtime '2000-01-13 04:01:00';
         mode polar;
}
object voltdump
{
         filename "output_voltage_293.csv";
         runtime '2000-01-13 05:01:00';
         mode polar;
}
object voltdump
{
         filename "output_voltage_294.csv";
         runtime '2000-01-13 06:01:00';
         mode polar;
}
object voltdump
{
         filename "output_voltage_295.csv";
         runtime '2000-01-13 07:01:00';
         mode polar;
}
object voltdump
{
         filename "output_voltage_296.csv";
         runtime '2000-01-13 08:01:00';
         mode polar;
}
object voltdump
{
         filename "output_voltage_297.csv";
         runtime '2000-01-13 09:01:00';
         mode polar;
}
object voltdump
{
         filename "output_voltage_298.csv";
         runtime '2000-01-13 10:01:00';
         mode polar;
}
object voltdump
{
         filename "output_voltage_299.csv";
         runtime '2000-01-13 11:01:00';
         mode polar;
}
object voltdump
{
         filename "output_voltage_300.csv";
         runtime '2000-01-13 12:01:00';
         mode polar;
}
object voltdump
{
         filename "output_voltage_301.csv";
         runtime '2000-01-13 13:01:00';
         mode polar;
}
object voltdump
{
         filename "output_voltage_302.csv";
         runtime '2000-01-13 14:01:00';
         mode polar;
}
object voltdump
{
         filename "output_voltage_303.csv";
         runtime '2000-01-13 15:01:00';
         mode polar;
}
object voltdump
{
         filename "output_voltage_304.csv";
         runtime '2000-01-13 16:01:00';
         mode polar;
}
object voltdump
{
         filename "output_voltage_305.csv";
         runtime '2000-01-13 17:01:00';
         mode polar;
}
object voltdump
{
         filename "output_voltage_306.csv";
         runtime '2000-01-13 18:01:00';
         mode polar;
}
object voltdump
{
         filename "output_voltage_307.csv";
         runtime '2000-01-13 19:01:00';
         mode polar;
}
object voltdump
{
         filename "output_voltage_308.csv";
         runtime '2000-01-13 20:01:00';
         mode polar;
}
object voltdump
{
         filename "output_voltage_309.csv";
         runtime '2000-01-13 21:01:00';
         mode polar;
}
object voltdump
{
         filename "output_voltage_310.csv";
         runtime '2000-01-13 22:01:00';
         mode polar;
}
object voltdump
{
         filename "output_voltage_311.csv";
         runtime '2000-01-13 23:01:00';
         mode polar;
}
object voltdump
{
         filename "output_voltage_312.csv";
         runtime '2000-01-14 00:01:00';
         mode polar;
}
object voltdump
{
         filename "output_voltage_313.csv";
         runtime '2000-01-14 01:01:00';
         mode polar;
}
object voltdump
{
         filename "output_voltage_314.csv";
         runtime '2000-01-14 02:01:00';
         mode polar;
}
object voltdump
{
         filename "output_voltage_315.csv";
         runtime '2000-01-14 03:01:00';
         mode polar;
}
object voltdump
{
         filename "output_voltage_316.csv";
         runtime '2000-01-14 04:01:00';
         mode polar;
}
object voltdump
{
         filename "output_voltage_317.csv";
         runtime '2000-01-14 05:01:00';
         mode polar;
}
object voltdump
{
         filename "output_voltage_318.csv";
         runtime '2000-01-14 06:01:00';
         mode polar;
}
object voltdump
{
         filename "output_voltage_319.csv";
         runtime '2000-01-14 07:01:00';
         mode polar;
}
object voltdump
{
         filename "output_voltage_320.csv";
         runtime '2000-01-14 08:01:00';
         mode polar;
}
object voltdump
{
         filename "output_voltage_321.csv";
         runtime '2000-01-14 09:01:00';
         mode polar;
}
object voltdump
{
         filename "output_voltage_322.csv";
         runtime '2000-01-14 10:01:00';
         mode polar;
}
object voltdump
{
         filename "output_voltage_323.csv";
         runtime '2000-01-14 11:01:00';
         mode polar;
}
object voltdump
{
         filename "output_voltage_324.csv";
         runtime '2000-01-14 12:01:00';
         mode polar;
}
object voltdump
{
         filename "output_voltage_325.csv";
         runtime '2000-01-14 13:01:00';
         mode polar;
}
object voltdump
{
         filename "output_voltage_326.csv";
         runtime '2000-01-14 14:01:00';
         mode polar;
}
object voltdump
{
         filename "output_voltage_327.csv";
         runtime '2000-01-14 15:01:00';
         mode polar;
}
object voltdump
{
         filename "output_voltage_328.csv";
         runtime '2000-01-14 16:01:00';
         mode polar;
}
object voltdump
{
         filename "output_voltage_329.csv";
         runtime '2000-01-14 17:01:00';
         mode polar;
}
object voltdump
{
         filename "output_voltage_330.csv";
         runtime '2000-01-14 18:01:00';
         mode polar;
}
object voltdump
{
         filename "output_voltage_331.csv";
         runtime '2000-01-14 19:01:00';
         mode polar;
}
object voltdump
{
         filename "output_voltage_332.csv";
         runtime '2000-01-14 20:01:00';
         mode polar;
}
object voltdump
{
         filename "output_voltage_333.csv";
         runtime '2000-01-14 21:01:00';
         mode polar;
}
object voltdump
{
         filename "output_voltage_334.csv";
         runtime '2000-01-14 22:01:00';
         mode polar;
}
object voltdump
{
         filename "output_voltage_335.csv";
         runtime '2000-01-14 23:01:00';
         mode polar;
}
object voltdump
{
         filename "output_voltage_336.csv";
         runtime '2000-01-15 00:01:00';
         mode polar;
}
object voltdump
{
         filename "output_voltage_337.csv";
         runtime '2000-01-15 01:01:00';
         mode polar;
}
object voltdump
{
         filename "output_voltage_338.csv";
         runtime '2000-01-15 02:01:00';
         mode polar;
}
object voltdump
{
         filename "output_voltage_339.csv";
         runtime '2000-01-15 03:01:00';
         mode polar;
}
object voltdump
{
         filename "output_voltage_340.csv";
         runtime '2000-01-15 04:01:00';
         mode polar;
}
object voltdump
{
         filename "output_voltage_341.csv";
         runtime '2000-01-15 05:01:00';
         mode polar;
}
object voltdump
{
         filename "output_voltage_342.csv";
         runtime '2000-01-15 06:01:00';
         mode polar;
}
object voltdump
{
         filename "output_voltage_343.csv";
         runtime '2000-01-15 07:01:00';
         mode polar;
}
object voltdump
{
         filename "output_voltage_344.csv";
         runtime '2000-01-15 08:01:00';
         mode polar;
}
object voltdump
{
         filename "output_voltage_345.csv";
         runtime '2000-01-15 09:01:00';
         mode polar;
}
object voltdump
{
         filename "output_voltage_346.csv";
         runtime '2000-01-15 10:01:00';
         mode polar;
}
object voltdump
{
         filename "output_voltage_347.csv";
         runtime '2000-01-15 11:01:00';
         mode polar;
}
object voltdump
{
         filename "output_voltage_348.csv";
         runtime '2000-01-15 12:01:00';
         mode polar;
}
object voltdump
{
         filename "output_voltage_349.csv";
         runtime '2000-01-15 13:01:00';
         mode polar;
}
object voltdump
{
         filename "output_voltage_350.csv";
         runtime '2000-01-15 14:01:00';
         mode polar;
}
object voltdump
{
         filename "output_voltage_351.csv";
         runtime '2000-01-15 15:01:00';
         mode polar;
}
object voltdump
{
         filename "output_voltage_352.csv";
         runtime '2000-01-15 16:01:00';
         mode polar;
}
object voltdump
{
         filename "output_voltage_353.csv";
         runtime '2000-01-15 17:01:00';
         mode polar;
}
object voltdump
{
         filename "output_voltage_354.csv";
         runtime '2000-01-15 18:01:00';
         mode polar;
}
object voltdump
{
         filename "output_voltage_355.csv";
         runtime '2000-01-15 19:01:00';
         mode polar;
}
object voltdump
{
         filename "output_voltage_356.csv";
         runtime '2000-01-15 20:01:00';
         mode polar;
}
object voltdump
{
         filename "output_voltage_357.csv";
         runtime '2000-01-15 21:01:00';
         mode polar;
}
object voltdump
{
         filename "output_voltage_358.csv";
         runtime '2000-01-15 22:01:00';
         mode polar;
}
object voltdump
{
         filename "output_voltage_359.csv";
         runtime '2000-01-15 23:01:00';
         mode polar;
}
object voltdump
{
         filename "output_voltage_360.csv";
...